/*--------------------------------*- C++ -*----------------------------------*\
  =========                 |
  \\      /  F ield         | OpenFOAM: The Open Source CFD Toolbox
   \\    /   O peration     | Website:  https://openfoam.org
    \\  /    A nd           | Version:  7
     \\/     M anipulation  |
\*---------------------------------------------------------------------------*/
FoamFile
{
    version     2.0;
    format      ascii;
    class       polyBoundaryMesh;
    location    "constant/polyMesh";
    object      boundary;
}
// * * * * * * * * * * * * * * * * * * * * * * * * * * * * * * * * * * * * * //

6
(
    x0
    {
        type            patch;
        nFaces          20;
        startFace       3880;
    }
    x1
    {
        type            patch;
        nFaces          20;
        startFace       3900;
    }
    y0
    {
        type            patch;
        nFaces          100;
        startFace       3920;
    }
    y1
    {
        type            patch;
        nFaces          100;
        startFace       4020;
    }
    z0
    {
        type            empty;
        inGroups        List<word> 1(empty);
        nFaces          2000;
        startFace       4120;
    }
    z1
    {
        type            empty;
        inGroups        List<word> 1(empty);
        nFaces          2000;
        startFace       6120;
    }
)

// ************************************************************************* //
